Circuit: * C:\Users\Carlo\OneDrive\Documentos\AnalogicaPRJ1\Analogica1\Proyecto1\Test.asc

Direct Newton iteration for .op point succeeded.

Date: Wed Mar 24 12:20:41 2021
Total elapsed time: 19.479 seconds.

tnom = 27
temp = 27
method = modified trap
totiter = 4073237
traniter = 4073224
tranpoints = 2036613
accept = 2035079
rejected = 1534
matrix size = 12
fillins = 2
solver = Normal
Matrix Compiler1:      41 opcodes  0.1/[0.1]/0.1
Matrix Compiler2: 1.13 KB object code size  0.1/0.1/[0.1]

